Questionable use of curly braces in "set color1 = {white}"
    Error: undefined symbol in: "[white]"
Circuit: * SPICE3 file created from NAND.ext - technology: scmos

Fatal Error: Multiple instances of "Set"
